/*--------------------------------*- C++ -*----------------------------------*\
| =========                 |                                                 |
| \\      /  F ield         | OpenFOAM: The Open Source CFD Toolbox           |
|  \\    /   O peration     | Version:  2.1.x                                 |
|   \\  /    A nd           | Web:      www.OpenFOAM.org                      |
|    \\/     M anipulation  |                                                 |
\*---------------------------------------------------------------------------*/
FoamFile
{
    version     2.0;
    format      ascii;
    class       dictionary;
    location    "system";
    object      initDynamicMeshDict;
}
// * * * * * * * * * * * * * * * * * * * * * * * * * * * * * * * * * * * * * //


// Name the volume fraction field to refine the mesh based on
alphaName   alphaVapor;

// simply carry the rest of the fields along
volScalarFields //don't put "alphaName" in here
(
    alphaLiquid
    N2
    p
    T
    Ydefault
);

volVectorFields
(
    U
);

// ************************************************************************* //
